Pcp_File_Version=3
  NumNPD  NumElD  NumBPD  MBandD  NSeepD  NumSPD    NDrD  NElDrD   NMatD   NObsD     NSD   NAnis
    1681    3200      52      30       1       1       1      20       1       3       1
